                                                           
.subckt ADFM0HM CO S A B CI VDD VSS 
MN0 net090 A VSS VSS N_15_LL_EE2_UCFN w=0.31u l=0.12u
MN1 net090 B VSS VSS N_15_LL_EE2_UCFN w=0.31u l=0.12u
MN2 net21 CI net090 VSS N_15_LL_EE2_UCFN w=0.31u l=0.12u
MN3 net21 A net084 VSS N_15_LL_EE2_UCFN w=0.31u l=0.12u
MN4 net084 B VSS VSS N_15_LL_EE2_UCFN w=0.31u l=0.12u
MN5 net096 A VSS VSS N_15_LL_EE2_UCFN w=0.31u l=0.12u
MN6 net096 B VSS VSS N_15_LL_EE2_UCFN w=0.31u l=0.12u
MN7 net096 CI VSS VSS N_15_LL_EE2_UCFN w=0.31u l=0.12u
MN8 net093 net21 net096 VSS N_15_LL_EE2_UCFN w=0.31u l=0.12u
MN9 net0108 A net0111 VSS N_15_LL_EE2_UCFN w=0.35u l=0.12u
MN10 net0111 B VSS VSS N_15_LL_EE2_UCFN w=0.35u l=0.12u
MN11 net093 CI net0108 VSS N_15_LL_EE2_UCFN w=0.35u l=0.12u
MN12 S net093 VSS VSS N_15_LL_EE2_UCFN w=0.31u l=0.12u
MN13 CO net21 VSS VSS N_15_LL_EE2_UCFN w=0.31u l=0.12u
MP0 VDD A net048 VDD P_15_LL_EE2_UCFN w=0.41u l=0.12u
MP1 VDD B net048 VDD P_15_LL_EE2_UCFN w=0.41u l=0.12u
MP2 net048 CI net21 VDD P_15_LL_EE2_UCFN w=0.41u l=0.12u
MP3 net052 A net21 VDD P_15_LL_EE2_UCFN w=0.41u l=0.12u
MP4 VDD B net052 VDD P_15_LL_EE2_UCFN w=0.41u l=0.12u
MP5 VDD A net054 VDD P_15_LL_EE2_UCFN w=0.41u l=0.12u
MP6 VDD B net054 VDD P_15_LL_EE2_UCFN w=0.41u l=0.12u
MP7 VDD CI net054 VDD P_15_LL_EE2_UCFN w=0.41u l=0.12u
MP8 net054 net21 net093 VDD P_15_LL_EE2_UCFN w=0.41u l=0.12u
MP9 net064 A net067 VDD P_15_LL_EE2_UCFN w=0.49u l=0.12u
MP10 VDD B net064 VDD P_15_LL_EE2_UCFN w=0.49u l=0.12u
MP11 net067 CI net093 VDD P_15_LL_EE2_UCFN w=0.49u l=0.12u
MP12 VDD net093 S VDD P_15_LL_EE2_UCFN w=0.38u l=0.12u
MP13 VDD net21 CO VDD P_15_LL_EE2_UCFN w=0.38u l=0.12u
.ends ADFM0HM
                                                           
.subckt ADFM1HM CO S A B CI VDD VSS 
MN0 net090 A VSS VSS N_15_LL_EE2_UCFN w=0.34u l=0.12u
MN1 net090 B VSS VSS N_15_LL_EE2_UCFN w=0.34u l=0.12u
MN2 net21 CI net090 VSS N_15_LL_EE2_UCFN w=0.34u l=0.12u
MN3 net21 A net084 VSS N_15_LL_EE2_UCFN w=0.34u l=0.12u
MN4 net084 B VSS VSS N_15_LL_EE2_UCFN w=0.34u l=0.12u
MN5 net096 A VSS VSS N_15_LL_EE2_UCFN w=0.31u l=0.12u
MN6 net096 B VSS VSS N_15_LL_EE2_UCFN w=0.31u l=0.12u
MN7 net096 CI VSS VSS N_15_LL_EE2_UCFN w=0.31u l=0.12u
MN8 net093 net21 net096 VSS N_15_LL_EE2_UCFN w=0.31u l=0.12u
MN9 net0108 A net0111 VSS N_15_LL_EE2_UCFN w=0.35u l=0.12u
MN10 net0111 B VSS VSS N_15_LL_EE2_UCFN w=0.35u l=0.12u
MN11 net093 CI net0108 VSS N_15_LL_EE2_UCFN w=0.35u l=0.12u
MN12 S net093 VSS VSS N_15_LL_EE2_UCFN w=0.39u l=0.12u
MN13 CO net21 VSS VSS N_15_LL_EE2_UCFN w=0.39u l=0.12u
MP0 VDD A net048 VDD P_15_LL_EE2_UCFN w=0.44u l=0.12u
MP1 VDD B net048 VDD P_15_LL_EE2_UCFN w=0.44u l=0.12u
MP2 net048 CI net21 VDD P_15_LL_EE2_UCFN w=0.44u l=0.12u
MP3 net052 A net21 VDD P_15_LL_EE2_UCFN w=0.44u l=0.12u
MP4 VDD B net052 VDD P_15_LL_EE2_UCFN w=0.44u l=0.12u
MP5 VDD A net054 VDD P_15_LL_EE2_UCFN w=0.41u l=0.12u
MP6 VDD B net054 VDD P_15_LL_EE2_UCFN w=0.41u l=0.12u
MP7 VDD CI net054 VDD P_15_LL_EE2_UCFN w=0.41u l=0.12u
MP8 net054 net21 net093 VDD P_15_LL_EE2_UCFN w=0.41u l=0.12u
MP9 net064 A net067 VDD P_15_LL_EE2_UCFN w=0.49u l=0.12u
MP10 VDD B net064 VDD P_15_LL_EE2_UCFN w=0.49u l=0.12u
MP11 net067 CI net093 VDD P_15_LL_EE2_UCFN w=0.49u l=0.12u
MP12 VDD net093 S VDD P_15_LL_EE2_UCFN w=0.49u l=0.12u
MP13 VDD net21 CO VDD P_15_LL_EE2_UCFN w=0.48u l=0.12u
.ends ADFM1HM
                                                           
.subckt ADFM2HM CO S A B CI VDD VSS 
MN0 net090 A VSS VSS N_15_LL_EE2_UCFN w=0.41u l=0.12u
MN1 net090 B VSS VSS N_15_LL_EE2_UCFN w=0.41u l=0.12u
MN2 net21 CI net090 VSS N_15_LL_EE2_UCFN w=0.41u l=0.12u
MN3 net21 A net084 VSS N_15_LL_EE2_UCFN w=0.41u l=0.12u
MN4 net084 B VSS VSS N_15_LL_EE2_UCFN w=0.41u l=0.12u
MN5 net096 A VSS VSS N_15_LL_EE2_UCFN w=0.31u l=0.12u
MN6 net096 B VSS VSS N_15_LL_EE2_UCFN w=0.31u l=0.12u
MN7 net096 CI VSS VSS N_15_LL_EE2_UCFN w=0.31u l=0.12u
MN8 net093 net21 net096 VSS N_15_LL_EE2_UCFN w=0.31u l=0.12u
MN9 net0108 A net0111 VSS N_15_LL_EE2_UCFN w=0.35u l=0.12u
MN10 net0111 B VSS VSS N_15_LL_EE2_UCFN w=0.35u l=0.12u
MN11 net093 CI net0108 VSS N_15_LL_EE2_UCFN w=0.35u l=0.12u
MN12 S net093 VSS VSS N_15_LL_EE2_UCFN w=0.56u l=0.12u
MN13 CO net21 VSS VSS N_15_LL_EE2_UCFN w=0.55u l=0.12u
MP0 VDD A net048 VDD P_15_LL_EE2_UCFN w=0.56u l=0.12u
MP1 VDD B net048 VDD P_15_LL_EE2_UCFN w=0.54u l=0.12u
MP2 net048 CI net21 VDD P_15_LL_EE2_UCFN w=0.55u l=0.12u
MP3 net052 A net21 VDD P_15_LL_EE2_UCFN w=0.55u l=0.12u
MP4 VDD B net052 VDD P_15_LL_EE2_UCFN w=0.55u l=0.12u
MP5 VDD A net054 VDD P_15_LL_EE2_UCFN w=0.49u l=0.12u
MP6 VDD B net054 VDD P_15_LL_EE2_UCFN w=0.44u l=0.12u
MP7 VDD CI net054 VDD P_15_LL_EE2_UCFN w=0.49u l=0.12u
MP8 net054 net21 net093 VDD P_15_LL_EE2_UCFN w=0.44u l=0.12u
MP9 net064 A net067 VDD P_15_LL_EE2_UCFN w=0.44u l=0.12u
MP10 VDD B net064 VDD P_15_LL_EE2_UCFN w=0.44u l=0.12u
MP11 net067 CI net093 VDD P_15_LL_EE2_UCFN w=0.44u l=0.12u
MP12 VDD net093 S VDD P_15_LL_EE2_UCFN w=0.68u l=0.12u
MP13 VDD net21 CO VDD P_15_LL_EE2_UCFN w=0.68u l=0.12u
.ends ADFM2HM
                                                           
.subckt ADFM4HM CO S A B CI VDD VSS 
MN0 net090 A VSS VSS N_15_LL_EE2_UCFN w=0.51u l=0.12u
MN1 net090 B VSS VSS N_15_LL_EE2_UCFN w=0.51u l=0.12u
MN2 net21 CI net090 VSS N_15_LL_EE2_UCFN w=0.53u l=0.12u
MN3 net21 A net084 VSS N_15_LL_EE2_UCFN w=0.51u l=0.12u
MN4 net084 B VSS VSS N_15_LL_EE2_UCFN w=0.51u l=0.12u
MN5 net096 A VSS VSS N_15_LL_EE2_UCFN w=0.44u l=0.12u
MN6 net096 B VSS VSS N_15_LL_EE2_UCFN w=0.44u l=0.12u
MN7 net096 CI VSS VSS N_15_LL_EE2_UCFN w=0.44u l=0.12u
MN8 net093 net21 net096 VSS N_15_LL_EE2_UCFN w=0.44u l=0.12u
MN9 net0108 A net0111 VSS N_15_LL_EE2_UCFN w=0.49u l=0.12u
MN10 net0111 B VSS VSS N_15_LL_EE2_UCFN w=0.49u l=0.12u
MN11 net093 CI net0108 VSS N_15_LL_EE2_UCFN w=0.49u l=0.12u
MN12 S net093 VSS VSS N_15_LL_EE2_UCFN w=1.12u l=0.12u
MN13 CO net21 VSS VSS N_15_LL_EE2_UCFN w=1.12u l=0.12u
MP0 VDD A net048 VDD P_15_LL_EE2_UCFN w=0.66u l=0.12u
MP1 VDD B net048 VDD P_15_LL_EE2_UCFN w=0.68u l=0.12u
MP2 net048 CI net21 VDD P_15_LL_EE2_UCFN w=0.68u l=0.12u
MP3 net052 A net21 VDD P_15_LL_EE2_UCFN w=0.58u l=0.12u
MP4 VDD B net052 VDD P_15_LL_EE2_UCFN w=0.48u l=0.12u
MP5 VDD A net054 VDD P_15_LL_EE2_UCFN w=0.57u l=0.12u
MP6 VDD B net054 VDD P_15_LL_EE2_UCFN w=0.57u l=0.12u
MP7 VDD CI net054 VDD P_15_LL_EE2_UCFN w=0.57u l=0.12u
MP8 net054 net21 net093 VDD P_15_LL_EE2_UCFN w=0.57u l=0.12u
MP9 net064 A net067 VDD P_15_LL_EE2_UCFN w=0.66u l=0.12u
MP10 VDD B net064 VDD P_15_LL_EE2_UCFN w=0.66u l=0.12u
MP11 net067 CI net093 VDD P_15_LL_EE2_UCFN w=0.66u l=0.12u
MP12 VDD net093 S VDD P_15_LL_EE2_UCFN w=1.36u l=0.12u
MP13 VDD net21 CO VDD P_15_LL_EE2_UCFN w=1.36u l=0.12u
.ends ADFM4HM
                                                           
.subckt ADFM8HM CO S A B CI VDD VSS 
MN0 net090 A VSS VSS N_15_LL_EE2_UCFN w=0.45u l=0.12u
MN1 net090 B VSS VSS N_15_LL_EE2_UCFN w=0.45u l=0.12u
MN2 net21 CI net090 VSS N_15_LL_EE2_UCFN w=0.45u l=0.12u
MN3 net21 A net084 VSS N_15_LL_EE2_UCFN w=0.45u l=0.12u
MN4 net084 B VSS VSS N_15_LL_EE2_UCFN w=0.45u l=0.12u
MN5 net096 A VSS VSS N_15_LL_EE2_UCFN w=0.38u l=0.12u
MN6 net096 B VSS VSS N_15_LL_EE2_UCFN w=0.38u l=0.12u
MN7 net096 CI VSS VSS N_15_LL_EE2_UCFN w=0.38u l=0.12u
MN8 net093 net21 net096 VSS N_15_LL_EE2_UCFN w=0.38u l=0.12u
MN9 net0108 A net0111 VSS N_15_LL_EE2_UCFN w=0.42u l=0.12u
MN10 net0111 B VSS VSS N_15_LL_EE2_UCFN w=0.42u l=0.12u
MN11 net093 CI net0108 VSS N_15_LL_EE2_UCFN w=0.42u l=0.12u
MN12 S net093 VSS VSS N_15_LL_EE2_UCFN w=2.24u l=0.12u
MN13 CO net21 VSS VSS N_15_LL_EE2_UCFN w=2.24u l=0.12u
MP0 VDD A net048 VDD P_15_LL_EE2_UCFN w=0.68u l=0.12u
MP1 VDD B net048 VDD P_15_LL_EE2_UCFN w=0.7u l=0.12u
MP2 net048 CI net21 VDD P_15_LL_EE2_UCFN w=0.68u l=0.12u
MP3 net052 A net21 VDD P_15_LL_EE2_UCFN w=0.68u l=0.12u
MP4 VDD B net052 VDD P_15_LL_EE2_UCFN w=0.68u l=0.12u
MP5 VDD A net054 VDD P_15_LL_EE2_UCFN w=0.57u l=0.12u
MP6 VDD B net054 VDD P_15_LL_EE2_UCFN w=0.57u l=0.12u
MP7 VDD CI net054 VDD P_15_LL_EE2_UCFN w=0.57u l=0.12u
MP8 net054 net21 net093 VDD P_15_LL_EE2_UCFN w=0.57u l=0.12u
MP9 net064 A net067 VDD P_15_LL_EE2_UCFN w=0.68u l=0.12u
MP10 VDD B net064 VDD P_15_LL_EE2_UCFN w=0.68u l=0.12u
MP11 net067 CI net093 VDD P_15_LL_EE2_UCFN w=0.68u l=0.12u
MP12 VDD net093 S VDD P_15_LL_EE2_UCFN w=2.72u l=0.12u
MP13 VDD net21 CO VDD P_15_LL_EE2_UCFN w=2.72u l=0.12u
.ends ADFM8HM
                                                           
.subckt ADHM0HM CO S A B VDD VSS 
MN0 net01 A net02 VSS N_15_LL_EE2_UCFN w=0.31u l=0.12u
MN1 net02 B VSS VSS N_15_LL_EE2_UCFN w=0.31u l=0.12u
MN2 net05 A VSS VSS N_15_LL_EE2_UCFN w=0.31u l=0.12u
MN3 net05 B VSS VSS N_15_LL_EE2_UCFN w=0.31u l=0.12u
MN4 net03 net01 net05 VSS N_15_LL_EE2_UCFN w=0.31u l=0.12u
MN5 S net03 VSS VSS N_15_LL_EE2_UCFN w=0.31u l=0.12u
MN6 CO net01 VSS VSS N_15_LL_EE2_UCFN w=0.31u l=0.12u
MP0 VDD A net01 VDD P_15_LL_EE2_UCFN w=0.28u l=0.12u
MP1 VDD B net01 VDD P_15_LL_EE2_UCFN w=0.28u l=0.12u
MP2 net04 A net03 VDD P_15_LL_EE2_UCFN w=0.41u l=0.12u
MP3 VDD B net04 VDD P_15_LL_EE2_UCFN w=0.41u l=0.12u
MP4 VDD net01 net03 VDD P_15_LL_EE2_UCFN w=0.27u l=0.12u
MP5 VDD net03 S VDD P_15_LL_EE2_UCFN w=0.38u l=0.12u
MP6 VDD net01 CO VDD P_15_LL_EE2_UCFN w=0.38u l=0.12u
.ends ADHM0HM
                                                           
.subckt ADHM1HM CO S A B VDD VSS 
MN0 net01 A net02 VSS N_15_LL_EE2_UCFN w=0.35u l=0.12u
MN1 net02 B VSS VSS N_15_LL_EE2_UCFN w=0.35u l=0.12u
MN2 net05 A VSS VSS N_15_LL_EE2_UCFN w=0.31u l=0.12u
MN3 net05 B VSS VSS N_15_LL_EE2_UCFN w=0.31u l=0.12u
MN4 net03 net01 net05 VSS N_15_LL_EE2_UCFN w=0.31u l=0.12u
MN5 S net03 VSS VSS N_15_LL_EE2_UCFN w=0.39u l=0.12u
MN6 CO net01 VSS VSS N_15_LL_EE2_UCFN w=0.39u l=0.12u
MP0 VDD A net01 VDD P_15_LL_EE2_UCFN w=0.30u l=0.12u
MP1 VDD B net01 VDD P_15_LL_EE2_UCFN w=0.30u l=0.12u
MP2 net04 A net03 VDD P_15_LL_EE2_UCFN w=0.41u l=0.12u
MP3 VDD B net04 VDD P_15_LL_EE2_UCFN w=0.41u l=0.12u
MP4 VDD net01 net03 VDD P_15_LL_EE2_UCFN w=0.27u l=0.12u
MP5 VDD net03 S VDD P_15_LL_EE2_UCFN w=0.48u l=0.12u
MP6 VDD net01 CO VDD P_15_LL_EE2_UCFN w=0.48u l=0.12u
.ends ADHM1HM
                                                           
.subckt ADHM2HM CO S A B VDD VSS 
MN0 net01 A net02 VSS N_15_LL_EE2_UCFN w=0.40u l=0.12u
MN1 net02 B VSS VSS N_15_LL_EE2_UCFN w=0.40u l=0.12u
MN2 net05 A VSS VSS N_15_LL_EE2_UCFN w=0.31u l=0.12u
MN3 net05 B VSS VSS N_15_LL_EE2_UCFN w=0.31u l=0.12u
MN4 net03 net01 net05 VSS N_15_LL_EE2_UCFN w=0.31u l=0.12u
MN5 S net03 VSS VSS N_15_LL_EE2_UCFN w=0.56u l=0.12u
MN6 CO net01 VSS VSS N_15_LL_EE2_UCFN w=0.56u l=0.12u
MP0 VDD A net01 VDD P_15_LL_EE2_UCFN w=0.34u l=0.12u
MP1 VDD B net01 VDD P_15_LL_EE2_UCFN w=0.34u l=0.12u
MP2 net04 A net03 VDD P_15_LL_EE2_UCFN w=0.41u l=0.12u
MP3 VDD B net04 VDD P_15_LL_EE2_UCFN w=0.41u l=0.12u
MP4 VDD net01 net03 VDD P_15_LL_EE2_UCFN w=0.27u l=0.12u
MP5 VDD net03 S VDD P_15_LL_EE2_UCFN w=0.68u l=0.12u
MP6 VDD net01 CO VDD P_15_LL_EE2_UCFN w=0.68u l=0.12u
.ends ADHM2HM
                                                           
.subckt ADHM4HM CO S A B VDD VSS 
MN0 net01 A net02 VSS N_15_LL_EE2_UCFN w=0.7u l=0.12u
MN1 net02 B VSS VSS N_15_LL_EE2_UCFN w=0.7u l=0.12u
MN2 net05 A VSS VSS N_15_LL_EE2_UCFN w=0.53u l=0.12u
MN3 net05 B VSS VSS N_15_LL_EE2_UCFN w=0.53u l=0.12u
MN4 net03 net01 net05 VSS N_15_LL_EE2_UCFN w=0.53u l=0.12u
MN5 S net03 VSS VSS N_15_LL_EE2_UCFN w=1.12u l=0.12u
MN6 CO net01 VSS VSS N_15_LL_EE2_UCFN w=1.12u l=0.12u
MP0 VDD A net01 VDD P_15_LL_EE2_UCFN w=0.60u l=0.12u
MP1 VDD B net01 VDD P_15_LL_EE2_UCFN w=0.60u l=0.12u
MP2 net04 A net03 VDD P_15_LL_EE2_UCFN w=0.68u l=0.12u
MP3 VDD B net04 VDD P_15_LL_EE2_UCFN w=0.68u l=0.12u
MP4 VDD net01 net03 VDD P_15_LL_EE2_UCFN w=0.46u l=0.12u
MP5 VDD net03 S VDD P_15_LL_EE2_UCFN w=1.36u l=0.12u
MP6 VDD net01 CO VDD P_15_LL_EE2_UCFN w=1.36u l=0.12u
.ends ADHM4HM
                                                           
.subckt ADHM8HM CO S A B VDD VSS 
MN0 net01 A net02 VSS N_15_LL_EE2_UCFN w=0.72u l=0.12u
MN1 net02 B VSS VSS N_15_LL_EE2_UCFN w=0.72u l=0.12u
MN2 net05 A VSS VSS N_15_LL_EE2_UCFN w=0.48u l=0.12u
MN3 net05 B VSS VSS N_15_LL_EE2_UCFN w=0.48u l=0.12u
MN4 net03 net01 net05 VSS N_15_LL_EE2_UCFN w=0.48u l=0.12u
MN5 S net03 VSS VSS N_15_LL_EE2_UCFN w=2u l=0.12u
MN6 CO net01 VSS VSS N_15_LL_EE2_UCFN w=2u l=0.12u
MP0 VDD A net01 VDD P_15_LL_EE2_UCFN w=0.72u l=0.12u
MP1 VDD B net01 VDD P_15_LL_EE2_UCFN w=0.72u l=0.12u
MP2 net04 A net03 VDD P_15_LL_EE2_UCFN w=0.68u l=0.12u
MP3 VDD B net04 VDD P_15_LL_EE2_UCFN w=0.68u l=0.12u
MP4 VDD net01 net03 VDD P_15_LL_EE2_UCFN w=0.48u l=0.12u
MP5 VDD net03 S VDD P_15_LL_EE2_UCFN w=2.72u l=0.12u
MP6 VDD net01 CO VDD P_15_LL_EE2_UCFN w=2.72u l=0.12u
.ends ADHM8HM
                                                           
.subckt AN2M0HM Z A B VDD VSS 
MN0 net02 A net01 VSS N_15_LL_EE2_UCFN w=0.31u l=0.12u
MN1 net01 B VSS VSS N_15_LL_EE2_UCFN w=0.31u l=0.12u
MN2 Z net02 VSS VSS N_15_LL_EE2_UCFN w=0.31u l=0.12u
MP0 VDD A net02 VDD P_15_LL_EE2_UCFN w=0.28u l=0.12u
MP1 VDD B net02 VDD P_15_LL_EE2_UCFN w=0.28u l=0.12u
MP2 VDD net02 Z VDD P_15_LL_EE2_UCFN w=0.38u l=0.12u
.ends AN2M0HM
                                                           
.subckt AN2M12HM Z A B VDD VSS 
MN0 net02 A net01 VSS N_15_LL_EE2_UCFN w=1.57u l=0.12u
MN1 net01 B VSS VSS N_15_LL_EE2_UCFN w=1.57u l=0.12u
MN2 Z net02 VSS VSS N_15_LL_EE2_UCFN w=3.36u l=0.12u
MP0 VDD A net02 VDD P_15_LL_EE2_UCFN w=1.36u l=0.12u
MP1 VDD B net02 VDD P_15_LL_EE2_UCFN w=1.36u l=0.12u
MP2 VDD net02 Z VDD P_15_LL_EE2_UCFN w=4.08u l=0.12u
.ends AN2M12HM
                                                           
.subckt AN2M16HM Z A B VDD VSS 
MN0 net02 A net01 VSS N_15_LL_EE2_UCFN w=1.81u l=0.12u
MN1 net01 B VSS VSS N_15_LL_EE2_UCFN w=1.81u l=0.12u
MN2 Z net02 VSS VSS N_15_LL_EE2_UCFN w=4.48u l=0.12u
MP0 VDD A net02 VDD P_15_LL_EE2_UCFN w=1.57u l=0.12u
MP1 VDD B net02 VDD P_15_LL_EE2_UCFN w=1.57u l=0.12u
MP2 VDD net02 Z VDD P_15_LL_EE2_UCFN w=5.44u l=0.12u
.ends AN2M16HM
                                                           
.subckt AN2M1HM Z A B VDD VSS 
MN0 net02 A net01 VSS N_15_LL_EE2_UCFN w=0.31u l=0.12u
MN1 net01 B VSS VSS N_15_LL_EE2_UCFN w=0.31u l=0.12u
MN2 Z net02 VSS VSS N_15_LL_EE2_UCFN w=0.39u l=0.12u
MP0 VDD A net02 VDD P_15_LL_EE2_UCFN w=0.28u l=0.12u
MP1 VDD B net02 VDD P_15_LL_EE2_UCFN w=0.28u l=0.12u
MP2 VDD net02 Z VDD P_15_LL_EE2_UCFN w=0.48u l=0.12u
.ends AN2M1HM
                                                           
.subckt AN2M2HM Z A B VDD VSS 
MN0 net02 A net01 VSS N_15_LL_EE2_UCFN w=0.31u l=0.12u
MN1 net01 B VSS VSS N_15_LL_EE2_UCFN w=0.31u l=0.12u
MN2 Z net02 VSS VSS N_15_LL_EE2_UCFN w=0.56u l=0.12u
MP0 VDD A net02 VDD P_15_LL_EE2_UCFN w=0.28u l=0.12u
MP1 VDD B net02 VDD P_15_LL_EE2_UCFN w=0.28u l=0.12u
MP2 VDD net02 Z VDD P_15_LL_EE2_UCFN w=0.68u l=0.12u
.ends AN2M2HM
                                                           
.subckt AN2M4HM Z A B VDD VSS 
MN0 net02 A net01 VSS N_15_LL_EE2_UCFN w=0.53u l=0.12u
MN1 net01 B VSS VSS N_15_LL_EE2_UCFN w=0.53u l=0.12u
MN2 Z net02 VSS VSS N_15_LL_EE2_UCFN w=1.12u l=0.12u
MP0 VDD A net02 VDD P_15_LL_EE2_UCFN w=0.46u l=0.12u
MP1 VDD B net02 VDD P_15_LL_EE2_UCFN w=0.46u l=0.12u
MP2 VDD net02 Z VDD P_15_LL_EE2_UCFN w=1.36u l=0.12u
.ends AN2M4HM
                                                           
.subckt AN2M6HM Z A B VDD VSS 
MN0 net02 A net01 VSS N_15_LL_EE2_UCFN w=0.56u l=0.12u
MN1 net01 B VSS VSS N_15_LL_EE2_UCFN w=0.56u l=0.12u
MN2 Z net02 VSS VSS N_15_LL_EE2_UCFN w=1.68u l=0.12u
MP0 VDD A net02 VDD P_15_LL_EE2_UCFN w=0.68u l=0.12u
MP1 VDD B net02 VDD P_15_LL_EE2_UCFN w=0.68u l=0.12u
MP2 VDD net02 Z VDD P_15_LL_EE2_UCFN w=2.04u l=0.12u
.ends AN2M6HM
                                                           
.subckt AN2M8HM Z A B VDD VSS 
MN0 net02 A net01 VSS N_15_LL_EE2_UCFN w=1.03u l=0.12u
MN1 net01 B VSS VSS N_15_LL_EE2_UCFN w=1.03u l=0.12u
MN2 Z net02 VSS VSS N_15_LL_EE2_UCFN w=2.24u l=0.12u
MP0 VDD A net02 VDD P_15_LL_EE2_UCFN w=0.89u l=0.12u
MP1 VDD B net02 VDD P_15_LL_EE2_UCFN w=0.89u l=0.12u
MP2 VDD net02 Z VDD P_15_LL_EE2_UCFN w=2.72u l=0.12u
.ends AN2M8HM
                                                           
.subckt AN3M0HM Z A B C VDD VSS 
MN0 net03 A net02 VSS N_15_LL_EE2_UCFN w=0.35u l=0.12u
MN1 net02 B net01 VSS N_15_LL_EE2_UCFN w=0.35u l=0.12u
MN2 net01 C VSS VSS N_15_LL_EE2_UCFN w=0.35u l=0.12u
MN3 Z net03 VSS VSS N_15_LL_EE2_UCFN w=0.31u l=0.12u
MP0 VDD A net03 VDD P_15_LL_EE2_UCFN w=0.28u l=0.12u
MP1 VDD B net03 VDD P_15_LL_EE2_UCFN w=0.28u l=0.12u
MP2 VDD C net03 VDD P_15_LL_EE2_UCFN w=0.28u l=0.12u
MP3 VDD net03 Z VDD P_15_LL_EE2_UCFN w=0.38u l=0.12u
.ends AN3M0HM
                                                           
.subckt AN3M12HM Z A B C VDD VSS 
MN0 net03 A net02 VSS N_15_LL_EE2_UCFN w=1.75u l=0.12u
MN1 net02 B net01 VSS N_15_LL_EE2_UCFN w=1.75u l=0.12u
MN2 net01 C VSS VSS N_15_LL_EE2_UCFN w=1.75u l=0.12u
MN3 Z net03 VSS VSS N_15_LL_EE2_UCFN w=3.36u l=0.12u
MP0 VDD A net03 VDD P_15_LL_EE2_UCFN w=1.36u l=0.12u
MP1 VDD B net03 VDD P_15_LL_EE2_UCFN w=1.36u l=0.12u
MP2 VDD C net03 VDD P_15_LL_EE2_UCFN w=1.36u l=0.12u
MP3 VDD net03 Z VDD P_15_LL_EE2_UCFN w=4.08u l=0.12u
.ends AN3M12HM
                                                           
.subckt AN3M16HM Z A B C VDD VSS 
MN0 net03 A net02 VSS N_15_LL_EE2_UCFN w=1.98u l=0.12u
MN1 net02 B net01 VSS N_15_LL_EE2_UCFN w=1.98u l=0.12u
MN2 net01 C VSS VSS N_15_LL_EE2_UCFN w=1.98u l=0.12u
MN3 Z net03 VSS VSS N_15_LL_EE2_UCFN w=4.48u l=0.12u
MP0 VDD A net03 VDD P_15_LL_EE2_UCFN w=1.57u l=0.12u
MP1 VDD B net03 VDD P_15_LL_EE2_UCFN w=1.57u l=0.12u
MP2 VDD C net03 VDD P_15_LL_EE2_UCFN w=1.57u l=0.12u
MP3 VDD net03 Z VDD P_15_LL_EE2_UCFN w=5.44u l=0.12u
.ends AN3M16HM
                                                           
.subckt AN3M1HM Z A B C VDD VSS 
MN0 net03 A net02 VSS N_15_LL_EE2_UCFN w=0.35u l=0.12u
MN1 net02 B net01 VSS N_15_LL_EE2_UCFN w=0.35u l=0.12u
MN2 net01 C VSS VSS N_15_LL_EE2_UCFN w=0.35u l=0.12u
MN3 Z net03 VSS VSS N_15_LL_EE2_UCFN w=0.39u l=0.12u
MP0 VDD A net03 VDD P_15_LL_EE2_UCFN w=0.28u l=0.12u
MP1 VDD B net03 VDD P_15_LL_EE2_UCFN w=0.28u l=0.12u
MP2 VDD C net03 VDD P_15_LL_EE2_UCFN w=0.28u l=0.12u
MP3 VDD net03 Z VDD P_15_LL_EE2_UCFN w=0.48u l=0.12u
.ends AN3M1HM
                                                           
.subckt AN3M2HM Z A B C VDD VSS 
MN0 net03 A net02 VSS N_15_LL_EE2_UCFN w=0.35u l=0.12u
MN1 net02 B net01 VSS N_15_LL_EE2_UCFN w=0.35u l=0.12u
MN2 net01 C VSS VSS N_15_LL_EE2_UCFN w=0.35u l=0.12u
MN3 Z net03 VSS VSS N_15_LL_EE2_UCFN w=0.56u l=0.12u
MP0 VDD A net03 VDD P_15_LL_EE2_UCFN w=0.28u l=0.12u
MP1 VDD B net03 VDD P_15_LL_EE2_UCFN w=0.28u l=0.12u
MP2 VDD C net03 VDD P_15_LL_EE2_UCFN w=0.28u l=0.12u
MP3 VDD net03 Z VDD P_15_LL_EE2_UCFN w=0.68u l=0.12u
.ends AN3M2HM
                                                           
.subckt AN3M4HM Z A B C VDD VSS 
MN0 net03 A net02 VSS N_15_LL_EE2_UCFN w=0.56u l=0.12u
MN1 net02 B net01 VSS N_15_LL_EE2_UCFN w=0.56u l=0.12u
MN2 net01 C VSS VSS N_15_LL_EE2_UCFN w=0.56u l=0.12u
MN3 Z net03 VSS VSS N_15_LL_EE2_UCFN w=1.12u l=0.12u
MP0 VDD A net03 VDD P_15_LL_EE2_UCFN w=0.46u l=0.12u
MP1 VDD B net03 VDD P_15_LL_EE2_UCFN w=0.46u l=0.12u
MP2 VDD C net03 VDD P_15_LL_EE2_UCFN w=0.46u l=0.12u
MP3 VDD net03 Z VDD P_15_LL_EE2_UCFN w=1.36u l=0.12u
.ends AN3M4HM
                                                           
.subckt AN3M6HM Z A B C VDD VSS 
MN0 net03 A net02 VSS N_15_LL_EE2_UCFN w=0.56u l=0.12u
MN1 net02 B net01 VSS N_15_LL_EE2_UCFN w=0.56u l=0.12u
MN2 net01 C VSS VSS N_15_LL_EE2_UCFN w=0.56u l=0.12u
MN3 Z net03 VSS VSS N_15_LL_EE2_UCFN w=1.68u l=0.12u
MP0 VDD A net03 VDD P_15_LL_EE2_UCFN w=0.56u l=0.12u
MP1 VDD B net03 VDD P_15_LL_EE2_UCFN w=0.56u l=0.12u
MP2 VDD C net03 VDD P_15_LL_EE2_UCFN w=0.56u l=0.12u
MP3 VDD net03 Z VDD P_15_LL_EE2_UCFN w=2.04u l=0.12u
.ends AN3M6HM
                                                           
.subckt AN3M8HM Z A B C VDD VSS 
MN0 net03 A net02 VSS N_15_LL_EE2_UCFN w=1.12u l=0.12u
MN1 net02 B net01 VSS N_15_LL_EE2_UCFN w=1.12u l=0.12u
MN2 net01 C VSS VSS N_15_LL_EE2_UCFN w=1.12u l=0.12u
MN3 Z net03 VSS VSS N_15_LL_EE2_UCFN w=2.24u l=0.12u
MP0 VDD A net03 VDD P_15_LL_EE2_UCFN w=0.89u l=0.12u
MP1 VDD B net03 VDD P_15_LL_EE2_UCFN w=0.89u l=0.12u
MP2 VDD C net03 VDD P_15_LL_EE2_UCFN w=0.89u l=0.12u
MP3 VDD net03 Z VDD P_15_LL_EE2_UCFN w=2.72u l=0.12u
.ends AN3M8HM
                                                           
.subckt AN4M0HM Z A B C D VDD VSS 
MN0 net04 A net03 VSS N_15_LL_EE2_UCFN w=0.39u l=0.12u
MN1 net03 B net02 VSS N_15_LL_EE2_UCFN w=0.39u l=0.12u
MN2 net02 C net01 VSS N_15_LL_EE2_UCFN w=0.39u l=0.12u
MN3 net01 D VSS VSS N_15_LL_EE2_UCFN w=0.39u l=0.12u
MN4 Z net04 VSS VSS N_15_LL_EE2_UCFN w=0.31u l=0.12u
MP0 VDD A net04 VDD P_15_LL_EE2_UCFN w=0.28u l=0.12u
MP1 VDD B net04 VDD P_15_LL_EE2_UCFN w=0.28u l=0.12u
MP2 VDD C net04 VDD P_15_LL_EE2_UCFN w=0.28u l=0.12u
MP3 VDD D net04 VDD P_15_LL_EE2_UCFN w=0.28u l=0.12u
MP4 VDD net04 Z VDD P_15_LL_EE2_UCFN w=0.38u l=0.12u
.ends AN4M0HM
                                                           
.subckt AN4M12HM Z A B C D VDD VSS 
MN0 net04 A net03 VSS N_15_LL_EE2_UCFN w=1.96u l=0.12u
MN1 net03 B net02 VSS N_15_LL_EE2_UCFN w=1.96u l=0.12u
MN2 net02 C net01 VSS N_15_LL_EE2_UCFN w=1.96u l=0.12u
MN3 net01 D VSS VSS N_15_LL_EE2_UCFN w=1.96u l=0.12u
MN4 Z net04 VSS VSS N_15_LL_EE2_UCFN w=3.36u l=0.12u
MP0 VDD A net04 VDD P_15_LL_EE2_UCFN w=1.36u l=0.12u
MP1 VDD B net04 VDD P_15_LL_EE2_UCFN w=1.36u l=0.12u
MP2 VDD C net04 VDD P_15_LL_EE2_UCFN w=1.36u l=0.12u
MP3 VDD D net04 VDD P_15_LL_EE2_UCFN w=1.36u l=0.12u
MP4 VDD net04 Z VDD P_15_LL_EE2_UCFN w=4.08u l=0.12u
.ends AN4M12HM
                                                           
.subckt AN4M16HM Z A B C D VDD VSS 
MN0 net04 A net03 VSS N_15_LL_EE2_UCFN w=1.98u l=0.12u
MN1 net03 B net02 VSS N_15_LL_EE2_UCFN w=1.98u l=0.12u
MN2 net02 C net01 VSS N_15_LL_EE2_UCFN w=1.98u l=0.12u
MN3 net01 D VSS VSS N_15_LL_EE2_UCFN w=1.98u l=0.12u
MN4 Z net04 VSS VSS N_15_LL_EE2_UCFN w=4.48u l=0.12u
MP0 VDD A net04 VDD P_15_LL_EE2_UCFN w=1.57u l=0.12u
MP1 VDD B net04 VDD P_15_LL_EE2_UCFN w=1.57u l=0.12u
MP2 VDD C net04 VDD P_15_LL_EE2_UCFN w=1.57u l=0.12u
MP3 VDD D net04 VDD P_15_LL_EE2_UCFN w=1.57u l=0.12u
MP4 VDD net04 Z VDD P_15_LL_EE2_UCFN w=5.44u l=0.12u
.ends AN4M16HM
                                                           
.subckt AN4M1HM Z A B C D VDD VSS 
MN0 net04 A net03 VSS N_15_LL_EE2_UCFN w=0.39u l=0.12u
MN1 net03 B net02 VSS N_15_LL_EE2_UCFN w=0.39u l=0.12u
MN2 net02 C net01 VSS N_15_LL_EE2_UCFN w=0.39u l=0.12u
MN3 net01 D VSS VSS N_15_LL_EE2_UCFN w=0.39u l=0.12u
MN4 Z net04 VSS VSS N_15_LL_EE2_UCFN w=0.39u l=0.12u
MP0 VDD A net04 VDD P_15_LL_EE2_UCFN w=0.28u l=0.12u
MP1 VDD B net04 VDD P_15_LL_EE2_UCFN w=0.28u l=0.12u
MP2 VDD C net04 VDD P_15_LL_EE2_UCFN w=0.28u l=0.12u
MP3 VDD D net04 VDD P_15_LL_EE2_UCFN w=0.28u l=0.12u
MP4 VDD net04 Z VDD P_15_LL_EE2_UCFN w=0.48u l=0.12u
.ends AN4M1HM
                                                           
.subckt AN4M2HM Z A B C D VDD VSS 
MN0 net04 A net03 VSS N_15_LL_EE2_UCFN w=0.39u l=0.12u
MN1 net03 B net02 VSS N_15_LL_EE2_UCFN w=0.39u l=0.12u
MN2 net02 C net01 VSS N_15_LL_EE2_UCFN w=0.39u l=0.12u
MN3 net01 D VSS VSS N_15_LL_EE2_UCFN w=0.39u l=0.12u
MN4 Z net04 VSS VSS N_15_LL_EE2_UCFN w=0.56u l=0.12u
MP0 VDD A net04 VDD P_15_LL_EE2_UCFN w=0.28u l=0.12u
MP1 VDD B net04 VDD P_15_LL_EE2_UCFN w=0.28u l=0.12u
MP2 VDD C net04 VDD P_15_LL_EE2_UCFN w=0.28u l=0.12u
MP3 VDD D net04 VDD P_15_LL_EE2_UCFN w=0.28u l=0.12u
MP4 VDD net04 Z VDD P_15_LL_EE2_UCFN w=0.68u l=0.12u
.ends AN4M2HM
                                                           
.subckt AN4M4HM Z A B C D VDD VSS 
MN0 net04 A net03 VSS N_15_LL_EE2_UCFN w=0.56u l=0.12u
MN1 net03 B net02 VSS N_15_LL_EE2_UCFN w=0.56u l=0.12u
MN2 net02 C net01 VSS N_15_LL_EE2_UCFN w=0.56u l=0.12u
MN3 net01 D VSS VSS N_15_LL_EE2_UCFN w=0.56u l=0.12u
MN4 Z net04 VSS VSS N_15_LL_EE2_UCFN w=1.12u l=0.12u
MP0 VDD A net04 VDD P_15_LL_EE2_UCFN w=0.42u l=0.12u
MP1 VDD B net04 VDD P_15_LL_EE2_UCFN w=0.42u l=0.12u
MP2 VDD C net04 VDD P_15_LL_EE2_UCFN w=0.42u l=0.12u
MP3 VDD D net04 VDD P_15_LL_EE2_UCFN w=0.42u l=0.12u
MP4 VDD net04 Z VDD P_15_LL_EE2_UCFN w=1.36u l=0.12u
.ends AN4M4HM
                                                           
.subckt AN4M6HM Z A B C D VDD VSS 
MN0 net04 A net03 VSS N_15_LL_EE2_UCFN w=0.99u l=0.12u
MN1 net03 B net02 VSS N_15_LL_EE2_UCFN w=0.99u l=0.12u
MN2 net02 C net01 VSS N_15_LL_EE2_UCFN w=0.99u l=0.12u
MN3 net01 D VSS VSS N_15_LL_EE2_UCFN w=0.99u l=0.12u
MN4 Z net04 VSS VSS N_15_LL_EE2_UCFN w=1.68u l=0.12u
MP0 VDD A net04 VDD P_15_LL_EE2_UCFN w=0.68u l=0.12u
MP1 VDD B net04 VDD P_15_LL_EE2_UCFN w=0.68u l=0.12u
MP2 VDD C net04 VDD P_15_LL_EE2_UCFN w=0.68u l=0.12u
MP3 VDD D net04 VDD P_15_LL_EE2_UCFN w=0.68u l=0.12u
MP4 VDD net04 Z VDD P_15_LL_EE2_UCFN w=2.04u l=0.12u
.ends AN4M6HM
                                                           
.subckt AN4M8HM Z A B C D VDD VSS 
MN0 net04 A net03 VSS N_15_LL_EE2_UCFN w=1.12u l=0.12u
MN1 net03 B net02 VSS N_15_LL_EE2_UCFN w=1.12u l=0.12u
MN2 net02 C net01 VSS N_15_LL_EE2_UCFN w=1.12u l=0.12u
MN3 net01 D VSS VSS N_15_LL_EE2_UCFN w=1.12u l=0.12u
MN4 Z net04 VSS VSS N_15_LL_EE2_UCFN w=2.24u l=0.12u
MP0 VDD A net04 VDD P_15_LL_EE2_UCFN w=0.84u l=0.12u
MP1 VDD B net04 VDD P_15_LL_EE2_UCFN w=0.84u l=0.12u
MP2 VDD C net04 VDD P_15_LL_EE2_UCFN w=0.84u l=0.12u
MP3 VDD D net04 VDD P_15_LL_EE2_UCFN w=0.84u l=0.12u
MP4 VDD net04 Z VDD P_15_LL_EE2_UCFN w=2.72u l=0.12u
.ends AN4M8HM
                                                           
.subckt ANTHM A VDD VSS 
DZ0 VSS A DION_EE2_UCFN area=0.372p pj=2.44u
.ends ANTHM
                                                           
.subckt AO211M0HM Z A1 A2 B C VDD VSS 
MN0 net01 A1 net04 VSS N_15_LL_EE2_UCFN w=0.44u l=0.12u
MN1 net04 A2 VSS VSS N_15_LL_EE2_UCFN w=0.44u l=0.12u
MN2 net01 B VSS VSS N_15_LL_EE2_UCFN w=0.31u l=0.12u
MN3 net01 C VSS VSS N_15_LL_EE2_UCFN w=0.31u l=0.12u
MN4 Z net01 VSS VSS N_15_LL_EE2_UCFN w=0.31u l=0.12u
MP0 net02 A1 net01 VDD P_15_LL_EE2_UCFN w=0.68u l=0.12u
MP1 net02 A2 net01 VDD P_15_LL_EE2_UCFN w=0.68u l=0.12u
MP2 net03 B net02 VDD P_15_LL_EE2_UCFN w=0.68u l=0.12u
MP3 VDD C net03 VDD P_15_LL_EE2_UCFN w=0.68u l=0.12u
MP4 VDD net01 Z VDD P_15_LL_EE2_UCFN w=0.38u l=0.12u
.ends AO211M0HM
                                                           
.subckt AO211M1HM Z A1 A2 B C VDD VSS 
MN0 net01 A1 net04 VSS N_15_LL_EE2_UCFN w=0.44u l=0.12u
MN1 net04 A2 VSS VSS N_15_LL_EE2_UCFN w=0.44u l=0.12u
MN2 net01 B VSS VSS N_15_LL_EE2_UCFN w=0.31u l=0.12u
MN3 net01 C VSS VSS N_15_LL_EE2_UCFN w=0.31u l=0.12u
MN4 Z net01 VSS VSS N_15_LL_EE2_UCFN w=0.39u l=0.12u
MP0 net02 A1 net01 VDD P_15_LL_EE2_UCFN w=0.68u l=0.12u
MP1 net02 A2 net01 VDD P_15_LL_EE2_UCFN w=0.68u l=0.12u
MP2 net03 B net02 VDD P_15_LL_EE2_UCFN w=0.68u l=0.12u
MP3 VDD C net03 VDD P_15_LL_EE2_UCFN w=0.68u l=0.12u
MP4 VDD net01 Z VDD P_15_LL_EE2_UCFN w=0.48u l=0.12u
.ends AO211M1HM
                                                           
.subckt AO211M2HM Z A1 A2 B C VDD VSS 
MN0 net01 A1 net04 VSS N_15_LL_EE2_UCFN w=0.44u l=0.12u
MN1 net04 A2 VSS VSS N_15_LL_EE2_UCFN w=0.44u l=0.12u
MN2 net01 B VSS VSS N_15_LL_EE2_UCFN w=0.31u l=0.12u
MN3 net01 C VSS VSS N_15_LL_EE2_UCFN w=0.31u l=0.12u
MN4 Z net01 VSS VSS N_15_LL_EE2_UCFN w=0.56u l=0.12u
MP0 net02 A1 net01 VDD P_15_LL_EE2_UCFN w=0.68u l=0.12u
MP1 net02 A2 net01 VDD P_15_LL_EE2_UCFN w=0.68u l=0.12u
MP2 net03 B net02 VDD P_15_LL_EE2_UCFN w=0.68u l=0.12u
MP3 VDD C net03 VDD P_15_LL_EE2_UCFN w=0.68u l=0.12u
MP4 VDD net01 Z VDD P_15_LL_EE2_UCFN w=0.68u l=0.12u
.ends AO211M2HM
                                                           
.subckt AO211M4HM Z A1 A2 B C VDD VSS 
MN0 net01 A1 net04 VSS N_15_LL_EE2_UCFN w=0.47u l=0.12u
MN1 net04 A2 VSS VSS N_15_LL_EE2_UCFN w=0.47u l=0.12u
MN2 net01 B VSS VSS N_15_LL_EE2_UCFN w=0.34u l=0.12u
MN3 net01 C VSS VSS N_15_LL_EE2_UCFN w=0.34u l=0.12u
MN4 Z net01 VSS VSS N_15_LL_EE2_UCFN w=1.12u l=0.12u
MP0 net02 A1 net01 VDD P_15_LL_EE2_UCFN w=0.68u l=0.12u
MP1 net02 A2 net01 VDD P_15_LL_EE2_UCFN w=0.68u l=0.12u
MP2 net03 B net02 VDD P_15_LL_EE2_UCFN w=0.68u l=0.12u
MP3 VDD C net03 VDD P_15_LL_EE2_UCFN w=0.68u l=0.12u
MP4 VDD net01 Z VDD P_15_LL_EE2_UCFN w=1.36u l=0.12u
.ends AO211M4HM
                                                           
.subckt AO211M8HM Z A1 A2 B C VDD VSS 
MN0 net01 A1 net04 VSS N_15_LL_EE2_UCFN w=0.94u l=0.12u
MN1 net04 A2 VSS VSS N_15_LL_EE2_UCFN w=0.94u l=0.12u
MN2 net01 B VSS VSS N_15_LL_EE2_UCFN w=0.67u l=0.12u
MN3 net01 C VSS VSS N_15_LL_EE2_UCFN w=0.67u l=0.12u
MN4 Z net01 VSS VSS N_15_LL_EE2_UCFN w=2.24u l=0.12u
MP0 net02 A1 net01 VDD P_15_LL_EE2_UCFN w=1.36u l=0.12u
MP1 net02 A2 net01 VDD P_15_LL_EE2_UCFN w=1.36u l=0.12u
MP2 net03 B net02 VDD P_15_LL_EE2_UCFN w=1.44u l=0.12u
MP3 VDD C net03 VDD P_15_LL_EE2_UCFN w=1.44u l=0.12u
MP4 VDD net01 Z VDD P_15_LL_EE2_UCFN w=2.72u l=0.12u
.ends AO211M8HM
                                                           
.subckt AO21M0HM Z A1 A2 B VDD VSS 
MN0 net02 A1 net01 VSS N_15_LL_EE2_UCFN w=0.44u l=0.12u
MN1 net01 A2 VSS VSS N_15_LL_EE2_UCFN w=0.44u l=0.12u
MN2 net02 B VSS VSS N_15_LL_EE2_UCFN w=0.31u l=0.12u
MN3 Z net02 VSS VSS N_15_LL_EE2_UCFN w=0.31u l=0.12u
MP0 net03 A1 net02 VDD P_15_LL_EE2_UCFN w=0.57u l=0.12u
MP1 net03 A2 net02 VDD P_15_LL_EE2_UCFN w=0.57u l=0.12u
MP2 VDD B net03 VDD P_15_LL_EE2_UCFN w=0.57u l=0.12u
MP3 VDD net02 Z VDD P_15_LL_EE2_UCFN w=0.38u l=0.12u
.ends AO21M0HM
                                                           
.subckt AO21M1HM Z A1 A2 B VDD VSS 
MN0 net02 A1 net01 VSS N_15_LL_EE2_UCFN w=0.44u l=0.12u
MN1 net01 A2 VSS VSS N_15_LL_EE2_UCFN w=0.44u l=0.12u
MN2 net02 B VSS VSS N_15_LL_EE2_UCFN w=0.31u l=0.12u
MN3 Z net02 VSS VSS N_15_LL_EE2_UCFN w=0.39u l=0.12u
MP0 net03 A1 net02 VDD P_15_LL_EE2_UCFN w=0.57u l=0.12u
MP1 net03 A2 net02 VDD P_15_LL_EE2_UCFN w=0.57u l=0.12u
MP2 VDD B net03 VDD P_15_LL_EE2_UCFN w=0.57u l=0.12u